this is a cool project.

new line.

added html code.